# RIV package for  MODFLOW-2005, generated by Flopy.
       328         0
       328         0 # stress period 1
         1         1         1          530.12          5000.0          527.12
         1         1         2          520.26          5000.0          517.26
         1         1        52          548.75          5000.0          545.75
         1         1        53          548.63          5000.0          545.63
         1         1        54          548.57          5000.0          545.57
         1         1        55          543.32          5000.0          540.32
         1         1        56          540.32          5000.0          537.32
         1         1        57          537.35          5000.0          534.35
         1         1        58          537.35          5000.0          534.35
         1         1        76          518.76          5000.0          515.76
         1         1        77          518.76          5000.0          515.76
         1         1        79          518.76          5000.0          515.76
         1         1        80          518.76          5000.0          515.76
         1         1        81          518.76          5000.0          515.76
         1         1        82          518.76          5000.0          515.76
         1         1        83          518.76          5000.0          515.76
         1         1        84          518.76          5000.0          515.76
         1         1        85          518.76          5000.0          515.76
         1         1        90          536.85          5000.0          533.85
         1         1        91          538.11          5000.0          535.11
         1         1        92          538.29          5000.0          535.29
         1         2         1          530.22          5000.0          527.22
         1         2        49          558.69          5000.0          555.69
         1         2        50          557.76          5000.0          554.76
         1         2        52           549.4          5000.0           546.4
         1         2        54           548.5          5000.0           545.5
         1         2        55          543.81          5000.0          540.81
         1         2        56          539.74          5000.0          536.74
         1         2        57          539.74          5000.0          536.74
         1         2        75          518.76          5000.0          515.76
         1         2        76          518.76          5000.0          515.76
         1         2        80          518.76          5000.0          515.76
         1         2        85          518.76          5000.0          515.76
         1         2        89          536.85          5000.0          533.85
         1         2        90          536.85          5000.0          533.85
         1         2        92          538.29          5000.0          535.29
         1         3        43          570.98          5000.0          567.98
         1         3        44          568.35          5000.0          565.35
         1         3        45          567.53          5000.0          564.53
         1         3        46          567.53          5000.0          564.53
         1         3        47          567.53          5000.0          564.53
         1         3        48          563.41          5000.0          560.41
         1         3        49          558.64          5000.0          555.64
         1         3        50          557.68          5000.0          554.68
         1         3        51          556.87          5000.0          553.87
         1         3        52          556.67          5000.0          553.67
         1         3        75          518.76          5000.0          515.76
         1         3        79          518.76          5000.0          515.76
         1         3        80          518.76          5000.0          515.76
         1         3        85          518.76          5000.0          515.76
         1         3        86           528.5          5000.0           525.5
         1         3        87           528.5          5000.0           525.5
         1         3        88           528.5          5000.0           525.5
         1         3        89          536.85          5000.0          533.85
         1         4        40          584.47          5000.0          581.47
         1         4        41          577.94          5000.0          574.94
         1         4        42          576.53          5000.0          573.53
         1         4        43          576.27          5000.0          573.27
         1         4        74          518.76          5000.0          515.76
         1         4        75          518.76          5000.0          515.76
         1         4        79          518.76          5000.0          515.76
         1         4        80          518.76          5000.0          515.76
         1         4        85           528.5          5000.0           525.5
         1         4        86           528.5          5000.0           525.5
         1         5        36          594.48          5000.0          591.48
         1         5        37          588.87          5000.0          585.87
         1         5        38          586.98          5000.0          583.98
         1         5        39          584.47          5000.0          581.47
         1         5        40          584.47          5000.0          581.47
         1         5        74           521.9          5000.0           518.9
         1         5        79          518.76          5000.0          515.76
         1         5        80          518.76          5000.0          515.76
         1         5        85          528.71          5000.0          525.71
         1         5        86          528.71          5000.0          525.71
         1         5        87          528.71          5000.0          525.71
         1         6        35          598.22          5000.0          595.22
         1         6        36          594.48          5000.0          591.48
         1         6        73          527.03          5000.0          524.03
         1         6        74          525.32          5000.0          522.32
         1         6        78          518.76          5000.0          515.76
         1         6        79          518.76          5000.0          515.76
         1         6        87          528.71          5000.0          525.71
         1         6        88          528.71          5000.0          525.71
         1         6        89          528.71          5000.0          525.71
         1         6        90          528.71          5000.0          525.71
         1         6        91          536.43          5000.0          533.43
         1         7        14          587.02          5000.0          584.02
         1         7        15          588.68          5000.0          585.68
         1         7        16          588.68          5000.0          585.68
         1         7        17           588.9          5000.0           585.9
         1         7        18          589.02          5000.0          586.02
         1         7        19          597.58          5000.0          594.58
         1         7        20          598.68          5000.0          595.68
         1         7        21          598.76          5000.0          595.76
         1         7        34          600.79          5000.0          597.79
         1         7        35          598.22          5000.0          595.22
         1         7        73          528.66          5000.0          525.66
         1         7        77          518.76          5000.0          515.76
         1         7        78          518.76          5000.0          515.76
         1         7        88          532.74          5000.0          529.74
         1         7        91          538.49          5000.0          535.49
         1         7        92          538.74          5000.0          535.74
         1         8         1          549.89          5000.0          546.89
         1         8         2          551.53          5000.0          548.53
         1         8         3          551.53          5000.0          548.53
         1         8        12          578.89          5000.0          575.89
         1         8        13          578.89          5000.0          575.89
         1         8        14          583.88          5000.0          580.88
         1         8        34          600.87          5000.0          597.87
         1         8        73           535.3          5000.0           532.3
         1         8        74          557.72          5000.0          554.72
         1         8        77          518.76          5000.0          515.76
         1         8        78          518.76          5000.0          515.76
         1         8        88          537.52          5000.0          534.52
         1         8        89          538.65          5000.0          535.65
         1         8        91          538.51          5000.0          535.51
         1         8        92          538.67          5000.0          535.67
         1         9         3          551.53          5000.0          548.53
         1         9         4          551.53          5000.0          548.53
         1         9         5           551.6          5000.0           548.6
         1         9         6           560.4          5000.0           557.4
         1         9         7           560.4          5000.0           557.4
         1         9         8           560.4          5000.0           557.4
         1         9         9          569.47          5000.0          566.47
         1         9        10          569.48          5000.0          566.48
         1         9        11          573.42          5000.0          570.42
         1         9        12          574.49          5000.0          571.49
         1         9        34          606.26          5000.0          603.26
         1         9        73          557.72          5000.0          554.72
         1         9        74          557.72          5000.0          554.72
         1         9        76          518.76          5000.0          515.76
         1         9        77          518.76          5000.0          515.76
         1         9        89          538.65          5000.0          535.65
         1         9        91          538.65          5000.0          535.65
         1        10         8          569.47          5000.0          566.47
         1        10         9          569.47          5000.0          566.47
         1        10        73          557.72          5000.0          554.72
         1        10        76          518.76          5000.0          515.76
         1        10        77          518.76          5000.0          515.76
         1        10        89          538.65          5000.0          535.65
         1        10        90          538.65          5000.0          535.65
         1        10        91          538.65          5000.0          535.65
         1        10        92          538.65          5000.0          535.65
         1        11        73          557.72          5000.0          554.72
         1        11        74          557.72          5000.0          554.72
         1        11        76          518.76          5000.0          515.76
         1        11        77          518.76          5000.0          515.76
         1        12        74          557.72          5000.0          554.72
         1        12        75          520.73          5000.0          517.73
         1        12        76          518.76          5000.0          515.76
         1        12        77          518.76          5000.0          515.76
         1        12        78          518.76          5000.0          515.76
         1        13        74          557.72          5000.0          554.72
         1        13        75           520.9          5000.0           517.9
         1        13        76          521.26          5000.0          518.26
         1        13        77          522.21          5000.0          519.21
         1        13        78          521.92          5000.0          518.92
         1        14        58          558.69          5000.0          555.69
         1        14        59          558.69          5000.0          555.69
         1        14        60          558.69          5000.0          555.69
         1        14        61          558.69          5000.0          555.69
         1        14        62          557.72          5000.0          554.72
         1        14        73          557.72          5000.0          554.72
         1        14        74          557.72          5000.0          554.72
         1        14        76          524.33          5000.0          521.33
         1        14        78          523.42          5000.0          520.42
         1        14        79          528.69          5000.0          525.69
         1        14        80          528.69          5000.0          525.69
         1        15        58          558.69          5000.0          555.69
         1        15        59          558.69          5000.0          555.69
         1        15        62          557.72          5000.0          554.72
         1        15        63          557.72          5000.0          554.72
         1        15        64          557.72          5000.0          554.72
         1        15        65          557.72          5000.0          554.72
         1        15        73          557.72          5000.0          554.72
         1        15        76          525.99          5000.0          522.99
         1        15        78          526.67          5000.0          523.67
         1        15        80          528.69          5000.0          525.69
         1        16        56          559.04          5000.0          556.04
         1        16        57           558.7          5000.0           555.7
         1        16        58           558.7          5000.0           555.7
         1        16        64          557.72          5000.0          554.72
         1        16        65          557.72          5000.0          554.72
         1        16        66          557.72          5000.0          554.72
         1        16        67          557.72          5000.0          554.72
         1        16        68          557.72          5000.0          554.72
         1        16        72          557.72          5000.0          554.72
         1        16        73          557.72          5000.0          554.72
         1        16        76          528.05          5000.0          525.05
         1        16        79          528.69          5000.0          525.69
         1        16        80          528.69          5000.0          525.69
         1        16        82          528.69          5000.0          525.69
         1        17        51          569.53          5000.0          566.53
         1        17        52          569.31          5000.0          566.31
         1        17        53          568.29          5000.0          565.29
         1        17        54          567.84          5000.0          564.84
         1        17        55          562.69          5000.0          559.69
         1        17        56          562.05          5000.0          559.05
         1        17        68          557.72          5000.0          554.72
         1        17        69          557.72          5000.0          554.72
         1        17        70          557.72          5000.0          554.72
         1        17        71          557.72          5000.0          554.72
         1        17        72          557.72          5000.0          554.72
         1        17        76          528.69          5000.0          525.69
         1        17        79          528.69          5000.0          525.69
         1        17        80          528.69          5000.0          525.69
         1        17        81          528.69          5000.0          525.69
         1        17        82          528.69          5000.0          525.69
         1        17        83          528.69          5000.0          525.69
         1        18        51          569.53          5000.0          566.53
         1        18        52          569.53          5000.0          566.53
         1        18        53          568.29          5000.0          565.29
         1        18        67          557.72          5000.0          554.72
         1        18        68          557.72          5000.0          554.72
         1        18        76          530.44          5000.0          527.44
         1        18        77           531.6          5000.0           528.6
         1        18        78          537.13          5000.0          534.13
         1        18        79          528.74          5000.0          525.74
         1        18        80          528.69          5000.0          525.69
         1        18        81          528.69          5000.0          525.69
         1        18        82          528.69          5000.0          525.69
         1        18        83          528.69          5000.0          525.69
         1        19         1          579.44          5000.0          576.44
         1        19         2          585.72          5000.0          582.72
         1        19         3          593.67          5000.0          590.67
         1        19        50          573.71          5000.0          570.71
         1        19        51          571.78          5000.0          568.78
         1        19        67          557.72          5000.0          554.72
         1        19        78          538.15          5000.0          535.15
         1        19        79          538.45          5000.0          535.45
         1        19        83          534.73          5000.0          531.73
         1        19        84          537.92          5000.0          534.92
         1        20         3          598.71          5000.0          595.71
         1        20         4          598.74          5000.0          595.74
         1        20         5          641.68          5000.0          638.68
         1        20         6          641.68          5000.0          638.68
         1        20         7          641.68          5000.0          638.68
         1        20         8          641.68          5000.0          638.68
         1        20        50          573.72          5000.0          570.72
         1        20        66          557.72          5000.0          554.72
         1        20        67          557.72          5000.0          554.72
         1        20        78          538.48          5000.0          535.48
         1        20        79          538.48          5000.0          535.48
         1        20        83          537.06          5000.0          534.06
         1        20        84          537.66          5000.0          534.66
         1        20        85           539.2          5000.0           536.2
         1        20        86           539.2          5000.0           536.2
         1        20        87           539.2          5000.0           536.2
         1        20        88           539.2          5000.0           536.2
         1        20        89           539.2          5000.0           536.2
         1        20        90           539.2          5000.0           536.2
         1        21         8          641.68          5000.0          638.68
         1        21        50          578.14          5000.0          575.14
         1        21        66          557.72          5000.0          554.72
         1        21        67          557.72          5000.0          554.72
         1        21        78          538.52          5000.0          535.52
         1        21        84          537.66          5000.0          534.66
         1        21        85           539.2          5000.0           536.2
         1        21        87           539.2          5000.0           536.2
         1        21        88           539.2          5000.0           536.2
         1        21        89           539.2          5000.0           536.2
         1        21        90           539.2          5000.0           536.2
         1        21        91           539.2          5000.0           536.2
         1        22        49          579.46          5000.0          576.46
         1        22        50          579.46          5000.0          576.46
         1        22        66          557.72          5000.0          554.72
         1        22        67          557.72          5000.0          554.72
         1        22        77          541.58          5000.0          538.58
         1        22        78          540.45          5000.0          537.45
         1        22        85          565.24          5000.0          562.24
         1        22        86          577.52          5000.0          574.52
         1        22        87           539.2          5000.0           536.2
         1        22        88           539.2          5000.0           536.2
         1        22        91           539.2          5000.0           536.2
         1        22        92           539.2          5000.0           536.2
         1        23        48          579.46          5000.0          576.46
         1        23        49          579.46          5000.0          576.46
         1        23        66          558.69          5000.0          555.69
         1        23        76          544.45          5000.0          541.45
         1        23        77          543.75          5000.0          540.75
         1        23        86          577.94          5000.0          574.94
         1        23        91           539.2          5000.0           536.2
         1        23        92           539.2          5000.0           536.2
         1        24        47           582.5          5000.0           579.5
         1        24        48           585.3          5000.0           582.3
         1        24        66          558.69          5000.0          555.69
         1        24        75          547.05          5000.0          544.05
         1        24        76          546.15          5000.0          543.15
         1        24        86          584.77          5000.0          581.77
         1        24        87          540.53          5000.0          537.53
         1        24        88          567.77          5000.0          564.77
         1        24        90           539.2          5000.0           536.2
         1        24        91           539.2          5000.0           536.2
         1        24        92           539.2          5000.0           536.2
         1        25        47          583.68          5000.0          580.68
         1        25        66          558.69          5000.0          555.69
         1        25        75          550.29          5000.0          547.29
         1        25        88          584.77          5000.0          581.77
         1        25        92           539.2          5000.0           536.2
         1        26        46          584.27          5000.0          581.27
         1        26        47           584.1          5000.0           581.1
         1        26        66           558.7          5000.0           555.7
         1        26        67           558.7          5000.0           555.7
         1        26        75          555.67          5000.0          552.67
         1        26        76          557.71          5000.0          554.71
         1        26        88          584.77          5000.0          581.77
         1        26        89          584.77          5000.0          581.77
         1        27        45          589.37          5000.0          586.37
         1        27        46          589.27          5000.0          586.27
         1        27        66           558.7          5000.0           555.7
         1        27        76          557.71          5000.0          554.71
         1        27        89          584.77          5000.0          581.77
         1        28        64          563.92          5000.0          560.92
         1        28        65          561.58          5000.0          558.58
         1        28        66          561.58          5000.0          558.58
         1        28        76          558.81          5000.0          555.81
         1        29        62          570.97          5000.0          567.97
         1        29        63          567.68          5000.0          564.68
         1        29        64          565.71          5000.0          562.71
         1        29        65          562.51          5000.0          559.51
         1        29        76          558.81          5000.0          555.81
         1        30        59          577.98          5000.0          574.98
         1        30        60          577.98          5000.0          574.98
         1        30        61           571.5          5000.0           568.5
         1        30        62          571.17          5000.0          568.17
         1        30        63          567.81          5000.0          564.81
         1        30        76          559.71          5000.0          556.71
         1        30        77          562.76          5000.0          559.76
