# RIV package for  MODFLOW-2005, generated by Flopy.
      2175         0
      2175         0 # stress period 1
         1         2        72          508.83          5000.0          505.83
         1         2        74          508.83          5000.0          505.83
         1         2       195          586.38          5000.0          583.38
         1         2       247           446.6          5000.0           443.6
         1         2       250           445.8          5000.0           442.8
         1         2       260           445.8          5000.0           442.8
         1         2       270          453.97          5000.0          450.97
         1         2       272          455.03          5000.0          452.03
         1         2       284          504.81          5000.0          501.81
         1         2       287          506.57          5000.0          503.57
         1         2       290          512.44          5000.0          509.44
         1         2       324           739.9          5000.0           736.9
         1         2       359          648.34          5000.0          645.34
         1         2       362          647.58          5000.0          644.58
         1         2       370          627.13          5000.0          624.13
         1         2       372          627.72          5000.0          624.72
         1         2       375          628.21          5000.0          625.21
         1         2       377           628.4          5000.0           625.4
         1         2       387          638.58          5000.0          635.58
         1         2       390          638.58          5000.0          635.58
         1         5        70          508.83          5000.0          505.83
         1         5        72          508.83          5000.0          505.83
         1         5       192          573.06          5000.0          570.06
         1         5       195          576.74          5000.0          573.74
         1         5       250           445.8          5000.0           442.8
         1         5       252           445.8          5000.0           442.8
         1         5       255           445.8          5000.0           442.8
         1         5       257           445.8          5000.0           442.8
         1         5       260           445.8          5000.0           442.8
         1         5       324          737.06          5000.0          734.06
         1         5       359          636.51          5000.0          633.51
         1         5       362          632.91          5000.0          629.91
         1         5       365          628.46          5000.0          625.46
         1         5       370          619.03          5000.0          616.03
         1         5       372          620.34          5000.0          617.34
         1         5       375          628.17          5000.0          625.17
         1         5       377          628.79          5000.0          625.79
         1         5       380          628.79          5000.0          625.79
         1         5       382          628.79          5000.0          625.79
         1         5       385          638.58          5000.0          635.58
         1         5       387          638.58          5000.0          635.58
         1         5       390          638.58          5000.0          635.58
         1         7        67          508.34          5000.0          505.34
         1         7        70          508.83          5000.0          505.83
         1         7        72          506.84          5000.0          503.84
         1         7        74          510.98          5000.0          507.98
         1         7        77          518.65          5000.0          515.65
         1         7        80          525.26          5000.0          522.26
         1         7       192          564.72          5000.0          561.72
         1         7       260           445.8          5000.0           442.8
         1         7       324          729.39          5000.0          726.39
         1         7       327          720.89          5000.0          717.89
         1         7       362          633.18          5000.0          630.18
         1         7       365           626.1          5000.0           623.1
         1         7       367          619.03          5000.0          616.03
         1         7       370          619.03          5000.0          616.03
         1         7       382          628.79          5000.0          625.79
         1         7       385          628.79          5000.0          625.79
         1         7       387          638.58          5000.0          635.58
         1         7       390          638.58          5000.0          635.58
         1         9        67          500.32          5000.0          497.32
         1         9        70          500.32          5000.0          497.32
         1         9        72          501.79          5000.0          498.79
         1         9        80          535.88          5000.0          532.88
         1         9        82          534.56          5000.0          531.56
         1         9        84          549.27          5000.0          546.27
         1         9        87          563.12          5000.0          560.12
         1         9       192          558.07          5000.0          555.07
         1         9       224          530.01          5000.0          527.01
         1         9       257           445.8          5000.0           442.8
         1         9       260           445.8          5000.0           442.8
         1         9       327          718.54          5000.0          715.54
         1         9       365          619.03          5000.0          616.03
         1         9       367          619.03          5000.0          616.03
         1         9       370          619.03          5000.0          616.03
         1         9       382          634.37          5000.0          631.37
         1         9       385           637.3          5000.0           634.3
         1         9       387          638.02          5000.0          635.02
         1         9       390           644.0          5000.0           641.0
         1        12        70          500.32          5000.0          497.32
         1        12       192          553.69          5000.0          550.69
         1        12       195          551.69          5000.0          548.69
         1        12       224          526.78          5000.0          523.78
         1        12       227          518.76          5000.0          515.76
         1        12       255           445.8          5000.0           442.8
         1        12       257           445.8          5000.0           442.8
         1        12       327          718.06          5000.0          715.06
         1        12       330          718.06          5000.0          715.06
         1        12       362          619.03          5000.0          616.03
         1        12       365          619.03          5000.0          616.03
         1        12       367          619.03          5000.0          616.03
         1        15        70          500.06          5000.0          497.06
         1        15       195          544.09          5000.0          541.09
         1        15       197          538.37          5000.0          535.37
         1        15       224          512.56          5000.0          509.56
         1        15       227          516.13          5000.0          513.13
         1        15       252           445.8          5000.0           442.8
         1        15       255           445.8          5000.0           442.8
         1        15       327          717.96          5000.0          714.96
         1        15       330          709.47          5000.0          706.47
         1        15       332          708.68          5000.0          705.68
         1        15       357          608.46          5000.0          605.46
         1        15       359          608.46          5000.0          605.46
         1        15       362          617.21          5000.0          614.21
         1        15       365          619.03          5000.0          616.03
         1        17        62          498.65          5000.0          495.65
         1        17        64          498.65          5000.0          495.65
         1        17        67          498.65          5000.0          495.65
         1        17        70          498.65          5000.0          495.65
         1        17       197          536.36          5000.0          533.36
         1        17       224          497.48          5000.0          494.48
         1        17       227          498.37          5000.0          495.37
         1        17       252           445.8          5000.0           442.8
         1        17       330          698.57          5000.0          695.57
         1        17       332          698.66          5000.0          695.66
         1        17       357          608.46          5000.0          605.46
         1        17       359          608.46          5000.0          605.46
         1        17       362          619.03          5000.0          616.03
         1        19        57          496.33          5000.0          493.33
         1        19        60          497.57          5000.0          494.57
         1        19        62          498.65          5000.0          495.65
         1        19       197          530.86          5000.0          527.86
         1        19       205           551.6          5000.0           548.6
         1        19       207          549.58          5000.0          546.58
         1        19       224          497.28          5000.0          494.28
         1        19       227          487.67          5000.0          484.67
         1        19       250           445.8          5000.0           442.8
         1        19       252           445.8          5000.0           442.8
         1        19       255          446.63          5000.0          443.63
         1        19       330          698.49          5000.0          695.49
         1        19       359          608.46          5000.0          605.46
         1        22        54          493.98          5000.0          490.98
         1        22        57          494.79          5000.0          491.79
         1        22       197          522.73          5000.0          519.73
         1        22       202          530.64          5000.0          527.64
         1        22       205          537.57          5000.0          534.57
         1        22       207          545.58          5000.0          542.58
         1        22       224          481.31          5000.0          478.31
         1        22       227          483.11          5000.0          480.11
         1        22       247           445.8          5000.0           442.8
         1        22       250           445.8          5000.0           442.8
         1        22       255          448.95          5000.0          445.95
         1        22       257          449.89          5000.0          446.89
         1        22       327          694.85          5000.0          691.85
         1        22       330          692.21          5000.0          689.21
         1        22       354          606.51          5000.0          603.51
         1        22       357          607.96          5000.0          604.96
         1        22       359          608.46          5000.0          605.46
         1        22       372          690.07          5000.0          687.07
         1        22       375          698.04          5000.0          695.04
         1        22       377          705.67          5000.0          702.67
         1        25        54          492.47          5000.0          489.47
         1        25       169          526.79          5000.0          523.79
         1        25       197          517.16          5000.0          514.16
         1        25       199          517.97          5000.0          514.97
         1        25       202          525.15          5000.0          522.15
         1        25       205          536.38          5000.0          533.38
         1        25       224          481.31          5000.0          478.31
         1        25       227          481.31          5000.0          478.31
         1        25       247           445.8          5000.0           442.8
         1        25       257          459.71          5000.0          456.71
         1        25       260          471.64          5000.0          468.64
         1        25       327          685.05          5000.0          682.05
         1        25       330          690.71          5000.0          687.71
         1        25       352          603.59          5000.0          600.59
         1        25       354          605.88          5000.0          602.88
         1        25       367          668.27          5000.0          665.27
         1        25       370          671.12          5000.0          668.12
         1        25       372           686.0          5000.0           683.0
         1        25       377          705.28          5000.0          702.28
         1        25       380          712.31          5000.0          709.31
         1        27        54          492.47          5000.0          489.47
         1        27        57          490.47          5000.0          487.47
         1        27       169          516.61          5000.0          513.61
         1        27       187          498.67          5000.0          495.67
         1        27       189           501.1          5000.0           498.1
         1        27       192          507.61          5000.0          504.61
         1        27       195          508.87          5000.0          505.87
         1        27       197          514.61          5000.0          511.61
         1        27       199          516.63          5000.0          513.63
         1        27       227          468.44          5000.0          465.44
         1        27       229           463.2          5000.0           460.2
         1        27       232          457.75          5000.0          454.75
         1        27       234          454.18          5000.0          451.18
         1        27       247           445.8          5000.0           442.8
         1        27       260          476.45          5000.0          473.45
         1        27       262          487.38          5000.0          484.38
         1        27       265          500.09          5000.0          497.09
         1        27       324          676.41          5000.0          673.41
         1        27       327           679.7          5000.0           676.7
         1        27       352          601.52          5000.0          598.52
         1        27       367           657.0          5000.0           654.0
         1        27       370          667.49          5000.0          664.49
         1        27       372          683.65          5000.0          680.65
         1        29        57          490.08          5000.0          487.08
         1        29        60          488.49          5000.0          485.49
         1        29        62          487.84          5000.0          484.84
         1        29        64          487.51          5000.0          484.51
         1        29        67          486.63          5000.0          483.63
         1        29        70           486.0          5000.0           483.0
         1        29       169          508.55          5000.0          505.55
         1        29       185          488.18          5000.0          485.18
         1        29       187          497.67          5000.0          494.67
         1        29       189          499.21          5000.0          496.21
         1        29       192          505.72          5000.0          502.72
         1        29       195          509.74          5000.0          506.74
         1        29       234           445.8          5000.0           442.8
         1        29       247           445.8          5000.0           442.8
         1        29       265          500.96          5000.0          497.96
         1        29       322          659.36          5000.0          656.36
         1        29       324          664.02          5000.0          661.02
         1        29       327           679.7          5000.0           676.7
         1        29       352          598.81          5000.0          595.81
         1        29       354          613.93          5000.0          610.93
         1        29       357          614.95          5000.0          611.95
         1        29       359          627.58          5000.0          624.58
         1        29       362          638.03          5000.0          635.03
         1        29       365          647.94          5000.0          644.94
         1        29       367          655.21          5000.0          652.21
         1        32        10          628.56          5000.0          625.56
         1        32        70          484.96          5000.0          481.96
         1        32       169          496.82          5000.0          493.82
         1        32       172          494.91          5000.0          491.91
         1        32       185          485.75          5000.0          482.75
         1        32       187          483.34          5000.0          480.34
         1        32       234           445.8          5000.0           442.8
         1        32       237           445.8          5000.0           442.8
         1        32       247           445.8          5000.0           442.8
         1        32       250           445.8          5000.0           442.8
         1        32       322          651.49          5000.0          648.49
         1        32       347          598.44          5000.0          595.44
         1        32       349          598.44          5000.0          595.44
         1        32       352          598.44          5000.0          595.44
         1        32       354          605.02          5000.0          602.02
         1        32       357           623.8          5000.0           620.8
         1        35        10          627.88          5000.0          624.88
         1        35        70           484.2          5000.0           481.2
         1        35       172          487.22          5000.0          484.22
         1        35       185          478.52          5000.0          475.52
         1        35       187          481.88          5000.0          478.88
         1        35       234           445.8          5000.0           442.8
         1        35       237           445.8          5000.0           442.8
         1        35       247           445.8          5000.0           442.8
         1        35       250           445.8          5000.0           442.8
         1        35       312          632.98          5000.0          629.98
         1        35       314          622.51          5000.0          619.51
         1        35       317          624.42          5000.0          621.42
         1        35       320          644.71          5000.0          641.71
         1        35       322          651.56          5000.0          648.56
         1        35       339          588.71          5000.0          585.71
         1        35       342           598.4          5000.0           595.4
         1        35       347          598.44          5000.0          595.44
         1        37         5          618.53          5000.0          615.53
         1        37         7           618.7          5000.0           615.7
         1        37        10          627.15          5000.0          624.15
         1        37        70          483.62          5000.0          480.62
         1        37       172          480.84          5000.0          477.84
         1        37       175          477.39          5000.0          474.39
         1        37       182          478.52          5000.0          475.52
         1        37       185          478.52          5000.0          475.52
         1        37       234           445.8          5000.0           442.8
         1        37       245           445.8          5000.0           442.8
         1        37       247           445.8          5000.0           442.8
         1        37       290          641.28          5000.0          638.28
         1        37       312          624.78          5000.0          621.78
         1        37       314          613.16          5000.0          610.16
         1        37       317           629.3          5000.0           626.3
         1        37       337          588.67          5000.0          585.67
         1        37       339          588.67          5000.0          585.67
         1        37       342          588.67          5000.0          585.67
         1        37       344          598.44          5000.0          595.44
         1        37       347          598.44          5000.0          595.44
         1        39         2          616.15          5000.0          613.15
         1        39         5          618.22          5000.0          615.22
         1        39        67          482.54          5000.0          479.54
         1        39        70          482.91          5000.0          479.91
         1        39        77          511.58          5000.0          508.58
         1        39        80          513.24          5000.0          510.24
         1        39       175          470.92          5000.0          467.92
         1        39       177          462.96          5000.0          459.96
         1        39       179          458.11          5000.0          455.11
         1        39       182          458.71          5000.0          455.71
         1        39       185          478.52          5000.0          475.52
         1        39       229           445.8          5000.0           442.8
         1        39       232           445.8          5000.0           442.8
         1        39       234           445.8          5000.0           442.8
         1        39       237           445.8          5000.0           442.8
         1        39       240           445.8          5000.0           442.8
         1        39       242           445.8          5000.0           442.8
         1        39       245           445.8          5000.0           442.8
         1        39       287          631.43          5000.0          628.43
         1        39       290          632.52          5000.0          629.52
         1        39       310          613.89          5000.0          610.89
         1        39       312          617.72          5000.0          614.72
         1        39       314          605.93          5000.0          602.93
         1        39       330          585.16          5000.0          582.16
         1        39       332          588.46          5000.0          585.46
         1        39       334          588.61          5000.0          585.61
         1        39       337          588.66          5000.0          585.66
         1        42         2          612.87          5000.0          609.87
         1        42        64          481.72          5000.0          478.72
         1        42        67           481.2          5000.0           478.2
         1        42        77          508.11          5000.0          505.11
         1        42       140          598.61          5000.0          595.61
         1        42       179          455.73          5000.0          452.73
         1        42       182          461.54          5000.0          458.54
         1        42       185          478.47          5000.0          475.47
         1        42       212           445.8          5000.0           442.8
         1        42       214           445.8          5000.0           442.8
         1        42       217           445.8          5000.0           442.8
         1        42       219           445.8          5000.0           442.8
         1        42       222           445.8          5000.0           442.8
         1        42       224           445.8          5000.0           442.8
         1        42       227           445.8          5000.0           442.8
         1        42       229           445.8          5000.0           442.8
         1        42       240           445.8          5000.0           442.8
         1        42       242           445.8          5000.0           442.8
         1        42       287          625.34          5000.0          622.34
         1        42       310          598.17          5000.0          595.17
         1        42       312          595.79          5000.0          592.79
         1        42       314          602.35          5000.0          599.35
         1        42       330          580.13          5000.0          577.13
         1        44         2          609.64          5000.0          606.64
         1        44        64          480.65          5000.0          477.65
         1        44        67          480.45          5000.0          477.45
         1        44        74           503.5          5000.0           500.5
         1        44        77          504.67          5000.0          501.67
         1        44       140           588.6          5000.0           585.6
         1        44       177          455.73          5000.0          452.73
         1        44       179          455.73          5000.0          452.73
         1        44       182          465.11          5000.0          462.11
         1        44       205          445.21          5000.0          442.21
         1        44       207           445.8          5000.0           442.8
         1        44       209           445.8          5000.0           442.8
         1        44       212           445.8          5000.0           442.8
         1        44       227           445.8          5000.0           442.8
         1        44       287          617.56          5000.0          614.56
         1        44       310          591.22          5000.0          588.22
         1        44       312          584.73          5000.0          581.73
         1        44       324          578.72          5000.0          575.72
         1        44       327          578.72          5000.0          575.72
         1        44       330          578.72          5000.0          575.72
         1        47         2           608.6          5000.0           605.6
         1        47        67          478.49          5000.0          475.49
         1        47        74          498.44          5000.0          495.44
         1        47        77          501.67          5000.0          498.67
         1        47       137          581.74          5000.0          578.74
         1        47       140          588.06          5000.0          585.06
         1        47       177          456.02          5000.0          453.02
         1        47       179          453.22          5000.0          450.22
         1        47       199          445.21          5000.0          442.21
         1        47       202          445.21          5000.0          442.21
         1        47       205          445.21          5000.0          442.21
         1        47       227           445.8          5000.0           442.8
         1        47       287          617.33          5000.0          614.33
         1        47       312          583.93          5000.0          580.93
         1        47       324          578.72          5000.0          575.72
         1        47       327          578.72          5000.0          575.72
         1        49         2           608.6          5000.0           605.6
         1        49        62          478.49          5000.0          475.49
         1        49        64          478.49          5000.0          475.49
         1        49        67          478.49          5000.0          475.49
         1        49        72          489.21          5000.0          486.21
         1        49        74          496.32          5000.0          493.32
         1        49        77          499.21          5000.0          496.21
         1        49       137          575.52          5000.0          572.52
         1        49       177          453.22          5000.0          450.22
         1        49       197          444.89          5000.0          441.89
         1        49       199          444.85          5000.0          441.85
         1        49       227           445.8          5000.0           442.8
         1        49       287          609.04          5000.0          606.04
         1        49       312          583.93          5000.0          580.93
         1        49       314          577.54          5000.0          574.54
         1        49       322          567.89          5000.0          564.89
         1        49       324          572.72          5000.0          569.72
         1        52         2           608.6          5000.0           605.6
         1        52        34          535.63          5000.0          532.63
         1        52        37          526.75          5000.0          523.75