# RIV package for  MODFLOW-2005, generated by Flopy.
       213         0
       213         0 # stress period 1
         1        16        19           417.0          5000.0           414.0
         1        17        22           417.0          5000.0           414.0
         1        19        24           417.0          5000.0           414.0
         1        20        26           417.0          5000.0           414.0
         1        22        28           404.0          5000.0           401.0
         1        23        30           404.0          5000.0           401.0
         1        25        33           404.0          5000.0           401.0
         1        26        35           404.0          5000.0           401.0
         1        27        37           401.0          5000.0           398.0
         1        29        39           401.0          5000.0           398.0
         1        32        39           401.0          5000.0           398.0
         1        35        38           401.0          5000.0           398.0
         1        37        38           401.0          5000.0           398.0
         1        40        37           401.0          5000.0           398.0
         1        42        37           401.0          5000.0           398.0
         1        45        36           401.0          5000.0           398.0
         1        47        35           401.0          5000.0           398.0
         1        48        33           410.0          5000.0           407.0
         1        50        30           401.0          5000.0           398.0
         1        51        29           401.0          5000.0           398.0
         1        52        27           401.0          5000.0           398.0
         1        54        24           401.0          5000.0           398.0
         1        56        22           401.0          5000.0           398.0
         1        57        21           401.0          5000.0           398.0
         1        60        19           401.0          5000.0           398.0
         1        62        19           401.0          5000.0           398.0
         1        65        17           401.0          5000.0           398.0
         1        67        14           401.0          5000.0           398.0
         1        70        11           401.0          5000.0           398.0
         1        73         9           398.0          5000.0           395.0
         1        77         8           397.0          5000.0           394.0
         1        81         9           393.0          5000.0           390.0
         1        84        10           397.0          5000.0           394.0
         1        86        13           391.0          5000.0           388.0
         1        90        15           391.0          5000.0           388.0
         1        92        16           391.0          5000.0           388.0
         1        95        17           391.0          5000.0           388.0
         1        97        18           391.0          5000.0           388.0
         1       100        18           391.0          5000.0           388.0
         1       103        18           388.0          5000.0           385.0
         1       105        18           388.0          5000.0           385.0
         1       108        18           388.0          5000.0           385.0
         1       111        17           388.0          5000.0           385.0
         1       113        17           388.0          5000.0           385.0
         1       116        16           388.0          5000.0           385.0
         1       118        15           388.0          5000.0           385.0
         1       121        13           388.0          5000.0           385.0
         1       123        12           388.0          5000.0           385.0
         1       124        10           388.0          5000.0           385.0
         1       126         7           388.0          5000.0           385.0
         1       128         6           387.0          5000.0           384.0
         1       130         4           384.0          5000.0           381.0
         1       132         3           384.0          5000.0           381.0
         1       135         2           384.0          5000.0           381.0
         1        15        17           417.0          5000.0           414.0
         1        13        15           417.0          5000.0           414.0
         1        12        13           417.0          5000.0           414.0
         1        11        12           417.0          5000.0           414.0
         1        10        10           417.0          5000.0           414.0
         1        64        18           411.0          5000.0           408.0
         1        66        15           401.0          5000.0           398.0
         1        69        12           401.0          5000.0           398.0
         1        71         9           401.0          5000.0           398.0
         1        75         9           398.0          5000.0           395.0
         1        79         9           397.0          5000.0           394.0
         1        82        10           397.0          5000.0           394.0
         1        85        12           391.0          5000.0           388.0
         1        88        14           391.0          5000.0           388.0
         1        61        19           401.0          5000.0           398.0
         1        64        17           401.0          5000.0           398.0
         1        66        16           401.0          5000.0           398.0
         1        67        15           401.0          5000.0           398.0
         1        68        13           401.0          5000.0           398.0
         1        69        11           401.0          5000.0           398.0
         1        71        10           401.0          5000.0           398.0
         1        72         9           401.0          5000.0           398.0
         1        74         9           398.0          5000.0           395.0
         1        76         8           391.0          5000.0           388.0
         1        78         8           397.0          5000.0           394.0
         1        80         9           393.0          5000.0           390.0
         1        81         9           393.0          5000.0           390.0
         1        83        10           397.0          5000.0           394.0
         1        84        11           397.0          5000.0           394.0
         1        86        12           391.0          5000.0           388.0
         1        87        13           391.0          5000.0           388.0
         1        89        14           391.0          5000.0           388.0
         1        58        20           401.0          5000.0           398.0
         1        56        21           401.0          5000.0           398.0
         1        55        23           401.0          5000.0           398.0
         1        53        25           401.0          5000.0           398.0
         1        52        28           401.0          5000.0           398.0
         1        51        29           401.0          5000.0           398.0
         1        49        31           401.0          5000.0           398.0
         1        48        34           401.0          5000.0           398.0
         1        44        37           401.0          5000.0           398.0
         1        44        37           404.0          5000.0           401.0
         1        44        38           404.0          5000.0           401.0
         1        44        38           404.0          5000.0           401.0
         1        44        39           404.0          5000.0           401.0
         1        44        39           405.0          5000.0           402.0
         1        44        39           405.0          5000.0           402.0
         1        44        40           405.0          5000.0           402.0
         1        44        40           411.0          5000.0           408.0
         1        44        41           411.0          5000.0           408.0
         1        44        42           411.0          5000.0           408.0
         1        44        42           414.0          5000.0           411.0
         1        44        42           414.0          5000.0           411.0
         1        44        43           414.0          5000.0           411.0
         1        44        43           414.0          5000.0           411.0
         1        44        44           414.0          5000.0           411.0
         1        44        44           414.0          5000.0           411.0
         1        44        45           414.0          5000.0           411.0
         1        44        46           414.0          5000.0           411.0
         1        44        46           414.0          5000.0           411.0
         1        44        47           414.0          5000.0           411.0
         1        44        47           414.0          5000.0           411.0
         1        44        48           414.0          5000.0           411.0
         1        44        48           414.0          5000.0           411.0
         1        44        49           416.0          5000.0           413.0
         1        44        49           414.0          5000.0           411.0
         1        44        50           414.0          5000.0           411.0
         1        45        51           417.0          5000.0           414.0
         1        45        52           417.0          5000.0           414.0
         1        45        53           417.0          5000.0           414.0
         1        45        54           417.0          5000.0           414.0
         1        45        55           417.0          5000.0           414.0
         1        45        55           417.0          5000.0           414.0
         1        45        56           417.0          5000.0           414.0
         1        45        56           417.0          5000.0           414.0
         1        45        57           417.0          5000.0           414.0
         1        45        58           417.0          5000.0           414.0
         1        44        58           417.0          5000.0           414.0
         1        44        59           417.0          5000.0           414.0
         1        44        60           417.0          5000.0           414.0
         1        44        61           417.0          5000.0           414.0
         1        43        61           417.0          5000.0           414.0
         1        16        19           417.0          5000.0           414.0
         1        17        22           417.0          5000.0           414.0
         1        19        24           417.0          5000.0           414.0
         1        20        26           417.0          5000.0           414.0
         1        22        28           404.0          5000.0           401.0
         1        23        30           404.0          5000.0           401.0
         1        25        33           404.0          5000.0           401.0
         1        26        35           404.0          5000.0           401.0
         1        27        37           401.0          5000.0           398.0
         1        29        39           401.0          5000.0           398.0
         1        32        39           401.0          5000.0           398.0
         1        35        38           401.0          5000.0           398.0
         1        37        38           401.0          5000.0           398.0
         1        40        37           401.0          5000.0           398.0
         1        42        37           401.0          5000.0           398.0
         1        45        36           401.0          5000.0           398.0
         1        47        35           401.0          5000.0           398.0
         1        50        34           410.0          5000.0           407.0
         1        52        33           401.0          5000.0           398.0
         1        55        32           401.0          5000.0           398.0
         1        57        31           401.0          5000.0           398.0
         1        59        30           401.0          5000.0           398.0
         1        62        28           401.0          5000.0           398.0
         1        64        27           401.0          5000.0           398.0
         1        66        26           401.0          5000.0           398.0
         1        69        24           401.0          5000.0           398.0
         1        71        23           401.0          5000.0           398.0
         1        73        22           401.0          5000.0           398.0
         1        76        21           401.0          5000.0           398.0
         1        78        20           398.0          5000.0           395.0
         1        80        18           397.0          5000.0           394.0
         1        82        17           393.0          5000.0           390.0
         1        85        15           397.0          5000.0           394.0
         1        87        15           391.0          5000.0           388.0
         1        90        15           391.0          5000.0           388.0
         1        92        16           391.0          5000.0           388.0
         1        95        17           391.0          5000.0           388.0
         1        97        18           391.0          5000.0           388.0
         1       100        18           391.0          5000.0           388.0
         1       103        18           388.0          5000.0           385.0
         1       105        18           388.0          5000.0           385.0
         1       108        18           388.0          5000.0           385.0
         1       111        17           388.0          5000.0           385.0
         1       113        17           388.0          5000.0           385.0
         1       116        16           388.0          5000.0           385.0
         1       118        15           388.0          5000.0           385.0
         1       121        13           388.0          5000.0           385.0
         1       123        12           388.0          5000.0           385.0
         1       124        10           388.0          5000.0           385.0
         1       126         7           388.0          5000.0           385.0
         1       128         6           387.0          5000.0           384.0
         1       130         4           384.0          5000.0           381.0
         1       132         3           384.0          5000.0           381.0
         1       135         2           384.0          5000.0           381.0
         1        24        32           404.0          5000.0           401.0
         1        23        32           405.0          5000.0           402.0
         1        22        33           405.0          5000.0           402.0
         1        22        33           405.0          5000.0           402.0
         1        21        33           405.0          5000.0           402.0
         1        20        33           405.0          5000.0           402.0
         1        20        33           407.0          5000.0           404.0
         1        19        33           407.0          5000.0           404.0
         1        18        33           407.0          5000.0           404.0
         1        18        33           407.0          5000.0           404.0
         1        17        34           407.0          5000.0           404.0
         1        16        34           407.0          5000.0           404.0
         1        16        34           407.0          5000.0           404.0
         1        15        35           407.0          5000.0           404.0
         1        14        35           407.0          5000.0           404.0
         1        14        35           407.0          5000.0           404.0
         1        13        36           407.0          5000.0           404.0
         1        13        36           408.0          5000.0           405.0
         1        12        36           408.0          5000.0           405.0
         1        13        37           408.0          5000.0           405.0
         1        13        38           408.0          5000.0           405.0
         1        14        39           408.0          5000.0           405.0
         1        14        39           408.0          5000.0           405.0
